/*--------------------------------*- C++ -*----------------------------------*\
| =========                 |                                                 |
| \\      /  F ield         | OpenFOAM: The Open Source CFD Toolbox           |
|  \\    /   O peration     | Version:  dev                                   |
|   \\  /    A nd           | Web:      www.OpenFOAM.org                      |
|    \\/     M anipulation  |                                                 |
\*---------------------------------------------------------------------------*/
FoamFile
{
    version     2.0;
    format      ascii;
    class       volScalarField;
    location    "0";
    object      k;
}
// * * * * * * * * * * * * * * * * * * * * * * * * * * * * * * * * * * * * * //

dimensions      [0 2 -2 0 0 0 0];

internalField   uniform 0.00375;

boundaryField
{
    Cyl_top
    {
        type            kqRWallFunction;
        value           uniform 0.00375;
    }
    Cyl_mdl
    {
        type            kqRWallFunction;
        value           uniform 0.00375;
    }
    Cyl_btm
    {
        type            kqRWallFunction;
        value           uniform 0.00375;
    }
}


// ************************************************************************* //
