/*--------------------------------*- C++ -*----------------------------------*\
| =========                 |                                                 |
| \\      /  F ield         | OpenFOAM: The Open Source CFD Toolbox           |
|  \\    /   O peration     | Version:  dev                                   |
|   \\  /    A nd           | Web:      www.OpenFOAM.org                      |
|    \\/     M anipulation  |                                                 |
\*---------------------------------------------------------------------------*/
FoamFile
{
    version     2.0;
    format      ascii;
    class       dictionary;
    location    "constant";
    object      transportProperties;
}
// * * * * * * * * * * * * * * * * * * * * * * * * * * * * * * * * * * * * * //

transportModel  Newtonian;

// Laminar viscosity
nu              [0 2 -1 0 0 0 0] 1e-05;

// Reference density
rho0            [1 -3 0 0 0 0 0] 1000;

// Laminar Prandtl number
Cp0             [0 2 -2 -1 0 0 0] 500;

// Laminar Prandtl number
Pr              [0 0 0 0 0 0 0] 0.7;

// Turbulent Prandtl number
Prt             [0 0 0 0 0 0 0] 0.85;

// ************************************************************************* //
